!!>>>>>>>>>>>>>>>>>>>>>>>>>>>>>>>>>>>>>>>>>>>>>>>>>>>>>>>>>>>>>>>>>>>>>>
!! NEMO/OCE :   Reference namelist_ref                                !!
!!>>>>>>>>>>>>>>>>>>>>>>>>>>>>>>>>>>>>>>>>>>>>>>>>>>>>>>>>>>>>>>>>>>>>>>
!! NEMO/OCE  :  1 - Domain & run manager (namrun, namcfg, namdom, namtsd, namcrs, namc1d, namc1d_uvd)
!! namelists    2 - Surface boundary (namsbc, namsbc_flx, namsbc_blk, namsbc_cpl,
!!                                    namsbc_sas, namtra_qsr, namsbc_rnf,
!!                                    namisf, namsbc_apr, 
!!                                    namsbc_ssr, namsbc_wave, namberg)
!!              3 - lateral boundary (namlbc, namagrif, nambdy, nambdy_tide)
!!              4 - top/bot boundary (namdrg, namdrg_top, namdrg_bot, nambbc, nambbl)
!!              5 - Tracer           (nameos, namtra_adv, namtra_ldf, namtra_eiv, namtra_dmp)
!!              6 - dynamics         (namdyn_adv, namdyn_vor, namdyn_hpg, namdyn_spg, namdyn_ldf)
!!              7 - Vertical physics (namzdf, namzdf_ric, namzdf_tke, namzdf_gls, namzdf_iwm)
!!              8 - diagnostics      (namnc4, namtrd, namspr, namflo, namhsb)
!!              9 - Obs & Assim      (namobs, nam_asminc)
!!             10 - miscellaneous    (nammpp, namctl, namsto)
!!>>>>>>>>>>>>>>>>>>>>>>>>>>>>>>>>>>>>>>>>>>>>>>>>>>>>>>>>>>>>>>>>>>>>>>

!!======================================================================
!!              ***  Domain & Run management namelists  ***           !!
!!                                                                    !!
!!   namrun       parameters of the run
!!   namdom       space and time domain
!!   namcfg       parameters of the configuration                       (default: user defined GYRE)
!!   namwad       Wetting and drying                                    (default: OFF)
!!   namtsd       data: temperature & salinity                          (default: OFF)
!!   namcrs       coarsened grid (for outputs and/or TOP)               (ln_crs =T)
!!   namc1d       1D configuration options                              (ln_c1d =T)
!!   namc1d_dyndmp 1D newtonian damping applied on currents             (ln_c1d =T)
!!   namc1d_uvd   1D data (currents)                                    (ln_c1d =T)
!!======================================================================
!
!-----------------------------------------------------------------------
&namrun        !   parameters of the run
!-----------------------------------------------------------------------
   nn_no       =   <NN_NO> !  Assimilation cycle index
   cn_exp      =  "CREG025.L75-NEMO420"    !  experience name
   nn_it000    =  <NIT000>   !  first time step
   nn_itend    =  <NITEND>   !  last  time step (std 5475)
   nn_date0    =  19790101 !  date at nit_0000 (format yyyymmdd) used if ln_rstart=F or (ln_rstart=T and nn_rstctl=0 or 1)
   nn_time0    =       0   !  initial time of day in hhmm
   nn_leapy    =       0   !  Leap year calendar (1) or not (0)
   ln_rstart   = <RESTART> !  start from rest (F) or from a restart file (T)
      ln_1st_euler = .false.  !  =T force a start with forward time step (ln_rstart=T)
      nn_rstctl    =    2     !  restart control ==> activated only if ln_rstart=T
      !                          !    = 0 nn_date0 read in namelist ; nn_it000 : read in namelist
      !                          !    = 1 nn_date0 read in namelist ; nn_it000 : check consistancy between namelist and restart
      !                          !    = 2 nn_date0 read in restart  ; nn_it000 : check consistancy between namelist and restart
      cn_ocerst_in  = "<OCERST_IN>"    !  suffix of ocean restart name (input)
      cn_ocerst_indir = "<CN_IN_OCERST>"       !  directory from which to read input ocean restarts
      cn_ocerst_out = "<OCERST_OUT>"   !  suffix of ocean restart name (output)
      cn_ocerst_outdir = "<CN_OUT_OCERST>"      !  directory in which to write output ocean restarts
   nn_istate   =       0   !  output the initial state (1) or not (0)
   ln_rst_list = .false.   !  output restarts at list of times using nn_stocklist (T) or at set frequency with nn_stock (F)
   nn_stock    =       0   !  used only if ln_rst_list = F: output restart freqeuncy (modulo referenced to 1)
      !                          !    =  0 force to write restart files only at the end of the run
      !                          !    = -1 do not do any restart
   nn_stocklist = 0,0,0,0,0,0,0,0,0,0 ! List of timesteps when a restart file is to be written
   nn_write    =       0   !  used only if key_xios is not defined: output frequency (modulo referenced to nn_it000)
      !                          !    =  0 force to write output files only at the end of the run
      !                          !    = -1 do not do any output file
   ln_mskland  = .true.    !  mask land points in NetCDF outputs
   ln_cfmeta   = .false.   !  output additional data to netCDF files required for compliance with the CF metadata standard
   ln_clobber  = .true.    !  clobber (overwrite) an existing file
   nn_chunksz  =       0   !  chunksize (bytes) for NetCDF file (works only with iom_nf90 routines)
   ln_xios_read = .false.  !  use XIOS to read restart file (only for a single file restart)
   nn_wxios = 0      !  use XIOS to write restart file 0 - no, 1 - single file output, 2 - multiple file output
/
!-----------------------------------------------------------------------
&namdom        !   time and space domain
!-----------------------------------------------------------------------
   ln_linssh   = .true.    !  =T  linear free surface  ==>>  model level are fixed in time
   !
   rn_Dt       =  720.     !  time step for the dynamics and tracer
   rn_atfp     =    0.1    !  asselin time filter parameter
   !
   ln_crs      = .false.   !  Logical switch for coarsening module      (T => fill namcrs)
   ln_c1d      = .false.   !  Single column domain (1x1pt)              (T => fill namc1d)
   !
   ln_meshmask = .false.   !  =T create a mesh file
/
!-----------------------------------------------------------------------
&namcfg        !   parameters of the configuration                      (default: use namusr_def in namelist_cfg)
!-----------------------------------------------------------------------
   ln_read_cfg = .true.     !  (=T) read the domain configuration file
      !                      !  (=F) user defined configuration           (F => create/check namusr_def)
      cn_domcfg = "CREG025.L75_domain_cfg"  ! domain configuration filename
      !
      ln_closea    = .false. !  (=T => fill namclo) 
      !                      !  (=F) no control of net precip/evap over closed sea
      !
   ln_write_cfg = .false.    !  (=T) create the domain configuration file
      cn_domcfg_out = "domain_cfg_out" ! newly created domain configuration filename
      !
   ln_use_jattr = .false.    !  use (T) the file attribute: open_ocean_jstart, if present
   !                         !  in netcdf input files, as the start j-row for reading
/
!-----------------------------------------------------------------------
&namtile        !   parameters of the tiling
!-----------------------------------------------------------------------
   ln_tile = .false.     !  Use tiling (T) or not (F)
   nn_ltile_i = 99999    !  Length of tiles in i
   nn_ltile_j = 10       !  Length of tiles in j
/
!-----------------------------------------------------------------------
&namclo        !   parameters of the closed sea (cs) behavior                (default: OFF)
!-----------------------------------------------------------------------
   ln_maskcs = .false.        ! (=T) cs are masked ; So, in this case ln_mask_csundef and ln_clo_rnf have no effect.
      !                       ! (=F => set ln_mask_csundef and ln_clo_rnf) 
      !                       ! cs masks are read and net evap/precip over closed sea spread out depending on domain_cfg.nc masks.
      !                       ! See ln_mask_csundef and ln_clo_rnf for specific option related to this case
      !
      ln_mask_csundef = .true.   ! (=T) undefined closed seas are masked ; 
      !                          ! (=F) undefined closed seas are kept and no specific treatment is done for these closed seas
      !
      ln_clo_rnf = .true.        ! (=T) river mouth specified in domain_cfg.nc masks (rnf and emp case) are added to the runoff mask.
      !                          !      allow the treatment of closed sea outflow grid-points to be the same as river mouth grid-points
/
!-----------------------------------------------------------------------
&namtsd        !    Temperature & Salinity Data  (init/dmp)             (default: OFF)
!-----------------------------------------------------------------------
   !                       ! =T  read T-S fields for:
   ln_tsd_init = .true.         !  ocean initialisation
   ln_tsd_dmp  = .true.         !  T-S restoring   (see namtra_dmp)
   
   cn_dir      = './'      !  root directory for the T-S data location
   !___________!_________________________!___________________!___________!_____________!________!___________!__________________!__________!_______________!
   !           !  file name              ! frequency (hours) ! variable  ! time interp.!  clim  ! 'yearly'/ ! weights filename ! rotation ! land/sea mask !
   !           !                         !  (if <0  months)  !   name    !   (logical) !  (T/F) ! 'monthly' !                  ! pairing  !    filename   !
   sn_tem_ini  = 'woa09_temperature_monthly_1deg_t_an_CMA_drowned_Ex_L75' ,    -12     ,  't_an'   ,    .true.   , .true. , 'yearly'   , 'reshape_WOA09_REG1toCREG025_bilin.nc'  ,   ''    ,    ''
   sn_sal_ini  = 'woa09_salinity_monthly_1deg_s_an_CMA_drowned_Ex_L75'    ,    -12     ,  's_an'   ,    .true.   , .true. , 'yearly'   , 'reshape_WOA09_REG1toCREG025_bilin.nc'  ,   ''    ,    ''
   sn_tem_dmp  = 'woa09_temperature_monthly_1deg_t_an_CMA_drowned_Ex_L75' ,    -12     ,  't_an'   ,    .true.   , .true. , 'yearly'   , 'reshape_WOA09_REG1toCREG025_bilin.nc'  ,   ''    ,    ''
   sn_sal_dmp  = 'woa09_salinity_monthly_1deg_s_an_CMA_drowned_Ex_L75'    ,    -12     ,  's_an'   ,    .true.   , .true. , 'yearly'   , 'reshape_WOA09_REG1toCREG025_bilin.nc'  ,   ''    ,    ''
/
!-----------------------------------------------------------------------
&namwad        !   Wetting and Drying (WaD)                             (default: OFF)
!-----------------------------------------------------------------------
   ln_wd_il    = .false.   !  T/F activation of iterative   limiter
   ln_wd_dl    = .false.   !  T/F activation of directional limiter
   ln_wd_dl_bc = .false.   !  T/F Directional limiteer Baroclinic option
   ln_wd_dl_rmp = .false.  !  T/F Turn on directional limiter ramp
   rn_wdmin0   =  0.30     !  depth at which WaD starts
   rn_wdmin1   =  0.2      !  Minimum wet depth on dried cells
   rn_wdmin2   =  0.0001   !  Tolerance of min wet depth on dried cells
   rn_wdld     =  2.5      !  Land elevation below which WaD is allowed
   nn_wdit     =   20      !  Max iterations for WaD limiter
   rn_wd_sbcdep =  5.0     !  Depth at which to taper sbc fluxes
   rn_wd_sbcfra =  0.999   !  Fraction of SBC fluxes at taper depth (Must be <1)
/
!-----------------------------------------------------------------------
&namcrs        !   coarsened grid (for outputs and/or TOP)              (ln_crs =T)
!-----------------------------------------------------------------------
   nn_factx    = 3         !  Reduction factor of x-direction
   nn_facty    = 3         !  Reduction factor of y-direction
   nn_binref   = 0         !  Bin centering preference: NORTH or EQUAT
      !                    !  0, coarse grid is binned with preferential treatment of the north fold
      !                    !  1, coarse grid is binned with centering at the equator
      !                    !    Symmetry with nn_facty being odd-numbered. Asymmetry with even-numbered nn_facty.
   ln_msh_crs  = .false.   ! =T create a mesh & mask file
   nn_crs_kz   = 0         ! 0, MEAN of volume boxes
      !                    ! 1, MAX of boxes
      !                    ! 2, MIN of boxes
   ln_crs_wn   = .true.    ! wn coarsened (T) or computed using horizontal divergence ( F )
/
!-----------------------------------------------------------------------
&namc1d        !   1D configuration options                             (ln_c1d =T default: PAPA station)
!-----------------------------------------------------------------------
   rn_lat1d    =    50.1   !  Column latitude
   rn_lon1d    =  -144.9   !  Column longitude
/
!-----------------------------------------------------------------------
&namc1d_dyndmp !   U & V newtonian damping                              (ln_c1d =T default: OFF)
!-----------------------------------------------------------------------
   ln_dyndmp   =  .false.  !  add a damping term (T) or not (F)
/
!-----------------------------------------------------------------------
&namc1d_uvd    !   data: U & V currents                                 (ln_c1d =T default: OFF)
!-----------------------------------------------------------------------
   !                       !  =T read U-V fields for:
   ln_uvd_init   = .false.       !  ocean initialisation
   ln_uvd_dyndmp = .false.       !  U-V restoring

   cn_dir      = './'      !  root directory for the U-V data location
   !___________!_________________________!___________________!___________!_____________!________!___________!__________________!__________!_______________!
   !           !  file name              ! frequency (hours) ! variable  ! time interp.!  clim  ! 'yearly'/ ! weights filename ! rotation ! land/sea mask !
   !           !                         !  (if <0  months)  !   name    !   (logical) !  (T/F) ! 'monthly' !                  ! pairing  !    filename   !
   sn_ucur     = 'ucurrent'              ,         -1.       ,'u_current',   .false.   , .true. , 'monthly' ,  ''              ,  'Ume'   , ''
   sn_vcur     = 'vcurrent'              ,         -1.       ,'v_current',   .false.   , .true. , 'monthly' ,  ''              ,  'Vme'   , ''
/

!!======================================================================
!!            ***  Surface Boundary Condition namelists  ***          !!
!!                                                                    !!
!!   namsbc          surface boundary condition manager                 (default: NO selection)
!!   namsbc_flx      flux               formulation                     (ln_flx     =T)
!!   namsbc_blk      Bulk formulae formulation                          (ln_blk     =T)
!!   namsbc_cpl      CouPLed            formulation                     ("key_oasis3" )
!!   namsbc_sas      Stand-Alone Surface module                         (SAS_SRC  only)
!!   namsbc_iif      Ice-IF: use observed ice cover                     (nn_ice = 1   )
!!   namtra_qsr      penetrative solar radiation                        (ln_traqsr  =T)
!!   namsbc_ssr      sea surface restoring term (for T and/or S)        (ln_ssr     =T)
!!   namsbc_rnf      river runoffs                                      (ln_rnf     =T)
!!   namsbc_apr      Atmospheric Pressure                               (ln_apr_dyn =T)
!!   namsbc_wave     external fields from wave model                    (ln_wave    =T)
!!   namberg         iceberg floats                                     (ln_icebergs=T)
!!   namsbc_fwb      freshwater-budget adjustment                       (nn_fwb > 0)
!!======================================================================
!
!-----------------------------------------------------------------------
&namsbc        !   Surface Boundary Condition manager                   (default: NO selection)
!-----------------------------------------------------------------------
   nn_fsbc     = 1         !  frequency of SBC module call
      !                    !  (control sea-ice & iceberg model call)
                     ! Type of air-sea fluxes
   ln_usr      = .false.   !  user defined formulation                  (T => check usrdef_sbc)
   ln_flx      = .false.   !  flux formulation                          (T => fill namsbc_flx )
   ln_blk      = .true.    !  Bulk formulation                          (T => fill namsbc_blk )
   ln_abl      = .false.   !  ABL  formulation                          (T => fill namsbc_abl )
      !              ! Type of coupling (Ocean/Ice/Atmosphere) :
   ln_cpl      = .false.   !  atmosphere coupled   formulation          ( requires key_oasis3 )
   ln_mixcpl   = .false.   !  forced-coupled mixed formulation          ( requires key_oasis3 )
   nn_components = 0       !  configuration of the opa-sas OASIS coupling
      !                    !  =0 no opa-sas OASIS coupling: default single executable config.
      !                    !  =1 opa-sas OASIS coupling: multi executable config., OCE component
      !                    !  =2 opa-sas OASIS coupling: multi executable config., SAS component
                     ! Sea-ice :
   nn_ice      = 2         !  =0 no ice boundary condition
      !                    !  =1 use observed ice-cover                 (  => fill namsbc_iif )
      !                    !  =2 or 3 for SI3 and CICE, respectively
   ln_ice_embd = .false.   !  =T embedded sea-ice (pressure + mass and salt exchanges)
      !                    !  =F levitating ice (no pressure, mass and salt exchanges)
                     ! Misc. options of sbc :
   ln_traqsr   = .true.    !  Light penetration in the ocean            (T => fill namtra_qsr)
   ln_dm2dc    = .false.   !  daily mean to diurnal cycle on short wave
   ln_ssr      = .true.    !  Sea Surface Restoring on T and/or S       (T => fill namsbc_ssr)
   nn_fwb      = 0         !  FreshWater Budget: =0 unchecked
      !                    !     =1 global mean of e-p-r set to zero at each time step
      !                    !     =2 annual global mean of e-p-r set to zero
   ln_rnf      = .true.    !  runoffs                                   (T => fill namsbc_rnf)
   ln_apr_dyn  = .false.   !  Patm gradient added in ocean & ice Eqs.   (T => fill namsbc_apr )
   ln_wave     = .false.   !  Activate coupling with wave  (T => fill namsbc_wave)
   nn_lsm      = 0         !  =0 land/sea mask for input fields is not applied (keep empty land/sea mask filename field) ,
                           !  =1:n number of iterations of land/sea mask application for input fields (fill land/sea mask filename field)
/
!-----------------------------------------------------------------------
&namsbc_flx    !   surface boundary condition : flux formulation        (ln_flx =T)
!-----------------------------------------------------------------------
   cn_dir      = './'      !  root directory for the fluxes data location
   !___________!_________________________!___________________!___________!_____________!________!___________!__________________!__________!_______________!
   !           !  file name              ! frequency (hours) ! variable  ! time interp.!  clim  ! 'yearly'/ ! weights filename ! rotation ! land/sea mask !
   !           !                         !  (if <0  months)  !   name    !   (logical) !  (T/F) ! 'monthly' !                  ! pairing  !    filename   !
   sn_utau     = 'utau'                  ,        24.        , 'utau'    , .false.     , .false., 'yearly'  , ''               , ''       , ''
   sn_vtau     = 'vtau'                  ,        24.        , 'vtau'    , .false.     , .false., 'yearly'  , ''               , ''       , ''
   sn_qtot     = 'qtot'                  ,        24.        , 'qtot'    , .false.     , .false., 'yearly'  , ''               , ''       , ''
   sn_qsr      = 'qsr'                   ,        24.        , 'qsr'     , .false.     , .false., 'yearly'  , ''               , ''       , ''
   sn_emp      = 'emp'                   ,        24.        , 'emp'     , .false.     , .false., 'yearly'  , ''               , ''       , ''
/
!-----------------------------------------------------------------------
&namsbc_blk    !   namsbc_blk  generic Bulk formula          (ln_blk =T)
!-----------------------------------------------------------------------
   !                    !  bulk algorithm :
   ln_NCAR      = .true.     ! "NCAR"      algorithm   (Large and Yeager 2008)
   ln_COARE_3p0 = .false.    ! "COARE 3.0" algorithm   (Fairall et al. 2003)
   ln_COARE_3p6 = .false.    ! "COARE 3.6" algorithm   (Edson et al. 2013)
   ln_ECMWF     = .false.    ! "ECMWF"     algorithm   (IFS cycle 45r1)
   ln_ANDREAS   = .false.    ! "ANDREAS"   algorithm   (Andreas et al. 2015)
      rn_zqt       =  2.     !  Air temperature & humidity reference height (m)
      rn_zu        = 10.     !  Wind vector reference height (m)
      nn_iter_algo = 5       !  Number of iterations in bulk param. algo ("stable ABL + weak wind" requires more)
      ln_skin_cs   = .false. !  use the cool-skin parameterization  => use at least nn_iter_algo > 10
      ln_skin_wl   = .false. !  use the warm-layer parameterization => use at least nn_iter_algo > 10
   !
   rn_pfac    = 1.          !  multipl. factor for precipitation (total & snow)
   rn_efac    = 1.          !  multipl. factor for evaporation (0. or 1.)
   !
   ln_crt_fbk = .false.     !  Add surface current feedback to the wind stress (Renault et al. 2020, doi: 10.1029/2019MS001715)
         rn_stau_a = -2.9e-3   !     Alpha from eq. 10: Stau = Alpha * Wnd + Beta
         rn_stau_b =  8.0e-3   !     Beta 
   !
   ln_humi_sph = .false. !  humidity "sn_humi" is specific humidity  [kg/kg]
   ln_humi_dpt = .true.  !  humidity "sn_humi" is dew-point temperature [K]
   ln_humi_rlh = .false. !  humidity "sn_humi" is relative humidity     [%]
   ln_tair_pot = .false. !  air temperature read in "sn_tair" is already POTENTIAL TEMPERATURE, NOT ABSOLUTE (ECMWF => ln_tair_pot=.false.)
   !!   
   !! Bulk transfer coefficients over sea-ice: (relevant IF: nn_ice >=1 )
   ln_Cx_ice_cst = .true.     ! use constant ice-air bulk transfer coefficients (value given below)
      rn_Cd_i  = 1.4e-3       ! sea-ice drag coefficient
      rn_Ce_i  = 1.4e-3       !    "    sublimation coefficient
      rn_Ch_i  = 1.4e-3       !    "    sensible heat flux coefficient
   ln_Cx_ice_AN05  = .false.  !  (Andreas et al. 2005)
   ln_Cx_ice_LU12  = .false.  !  (Lupkes et al. 2012)
   ln_Cx_ice_LG15  = .false.  !  (Lupkes & Gryanik 2015)
   !
   cn_dir      = './'      !  root directory for the bulk data location
   !___________!_________________________!___________________!___________!_____________!________!___________!______________________________________!__________!_______________!
   !           !  file name              ! frequency (hours) ! variable  ! time interp.!  clim  ! 'yearly'/ !       weights filename               ! rotation ! land/sea mask !
   !           !                         !  (if <0  months)  !   name    !   (logical) !  (T/F) ! 'monthly' !                                      ! pairing  !    filename   !
   sn_wndi     = 'ERA5_u10_drwnd'        ,         1.        , 'u10'     ,   .true.    , .false., 'yearly'  , 'reshape_ERA5_CREG025.L75_bicub_20220623.nc' , 'Uwnd' , ''
   sn_wndj     = 'ERA5_v10_drwnd'        ,         1.        , 'v10'     ,   .true.    , .false., 'yearly'  , 'reshape_ERA5_CREG025.L75_bicub_20220623.nc' , 'Vwnd' , ''
   sn_qsr      = 'ERA5_msdwswrf_drwnd'   ,         1.        , 'msdwswrf',   .true.    , .false., 'yearly'  , 'reshape_ERA5_CREG025.L75_bilin_20220623.nc' , '' , ''
   sn_qlw      = 'ERA5_msdwlwrf_drwnd'   ,         1.        , 'msdwlwrf',   .true.    , .false., 'yearly'  , 'reshape_ERA5_CREG025.L75_bilin_20220623.nc' , '' , ''
   sn_tair     = 'ERA5_t2m_drwnd'        ,         1.        , 't2m'     ,   .true.    , .false., 'yearly'  , 'reshape_ERA5_CREG025.L75_bilin_20220623.nc' , '' , ''
   sn_humi     = 'ERA5_d2m_drwnd'        ,         1.        , 'd2m'     ,   .true.    , .false., 'yearly'  , 'reshape_ERA5_CREG025.L75_bilin_20220623.nc' , '' , ''
   sn_prec     = 'ERA5_mtpr_drwnd'       ,         1.        , 'mtpr'    ,   .true.    , .false., 'yearly'  , 'reshape_ERA5_CREG025.L75_bilin_20220623.nc' , '' , ''
   sn_snow     = 'ERA5_msr_drwnd'        ,         1.        , 'msr'     ,   .true.    , .false., 'yearly'  , 'reshape_ERA5_CREG025.L75_bilin_20220623.nc' , '' , ''
   sn_slp      = 'ERA5_msl_drwnd'        ,         1.        , 'msl'     ,   .true.    , .false., 'yearly'  , 'reshape_ERA5_CREG025.L75_bilin_20220623.nc' , '' , ''
   sn_uoatm    = 'NOT USED'              ,         6.        , 'UOATM'   ,   .false.   , .true. , 'yearly'  , '' , '' , ''
   sn_voatm    = 'NOT USED'              ,         6.        , 'VOATM'   ,   .false.   , .true. , 'yearly'  , '' , '' , ''
   sn_cc       = 'NOT USED'              ,        24.        , 'CC'      ,   .false.   , .true. , 'yearly'  , '' , '' , ''
   sn_hpgi     = 'NOT USED'              ,        24.        , 'uhpg'    ,   .false.   , .false., 'monthly' , '' , '' , ''
   sn_hpgj     = 'NOT USED'              ,        24.        , 'vhpg'    ,   .false.   , .false., 'monthly' , '' , '' , ''
/
!-----------------------------------------------------------------------
&namsbc_abl    !   Atmospheric Boundary Layer formulation           (ln_abl = T)
!-----------------------------------------------------------------------
   cn_dir           = './'      !  root directory for the location of the ABL grid file
   cn_dom           = 'dom_cfg_abl.nc'

   cn_ablrst_in     = "restart_abl"   !  suffix of abl restart name (input)
   cn_ablrst_out    = "restart_abl"   !  suffix of abl restart name (output)
   cn_ablrst_indir  = "."             !  directory to read   input abl restarts
   cn_ablrst_outdir = "."             !  directory to write output abl restarts

   ln_rstart_abl  = .false.
   ln_hpgls_frc   = .false.
   ln_geos_winds  = .false.
   ln_smth_pblh   = .false.
   nn_dyn_restore = 0         ! restoring option for dynamical ABL variables: = 0 no restoring
                              !                                               = 1 equatorial restoring
                              !                                               = 2 global restoring
   rn_ldyn_min   =  4.5       ! dynamics nudging magnitude inside the ABL [hour] (~3 rn_Dt)
   rn_ldyn_max   =  1.5       ! dynamics nudging magnitude above  the ABL [hour] (~1 rn_Dt)
   rn_ltra_min   =  4.5       ! tracers  nudging magnitude inside the ABL [hour] (~3 rn_Dt)
   rn_ltra_max   =  1.5       ! tracers  nudging magnitude above  the ABL [hour] (~1 rn_Dt)
   nn_amxl       =  0         ! mixing length: = 0 Deardorff 80 length-scale
                              !                = 1 length-scale based on the distance to the PBL height
                              !                = 2 Bougeault & Lacarrere 89 length-scale
                              ! CBR00  ! CCH02  ! MesoNH !
   rn_Cm          = 0.0667    ! 0.0667 ! 0.1260 ! 0.1260 !
   rn_Ct          = 0.1667    ! 0.1667 ! 0.1430 ! 0.1430 !
   rn_Ce          = 0.40      ! 0.40   ! 0.34   ! 0.40   !
   rn_Ceps        = 0.700     ! 0.700  ! 0.845  ! 0.850  !
   rn_Ric         = 0.139     ! 0.139  ! 0.143  !   ?    ! Critical Richardson number (to compute PBL height and diffusivities)
   rn_Rod         = 0.15      ! c0 in RMCA17 mixing length formulation (not yet implemented)
/
!-----------------------------------------------------------------------
&namsbc_cpl    !   coupled ocean/atmosphere model                       ("key_oasis3")
!-----------------------------------------------------------------------
   nn_cplmodel       =     1   !  Maximum number of models to/from which NEMO is potentially sending/receiving data
   ln_usecplmask     = .false. !  use a coupling mask file to merge data received from several models
   !                           !   -> file cplmask.nc with the float variable called cplmask (jpi,jpj,nn_cplmodel)
   ln_scale_ice_flux = .false. !  use ice fluxes that are already "ice weighted" ( i.e. multiplied ice concentration)
   nn_cats_cpl       =     5   !  Number of sea ice categories over which coupling is to be carried out (if not 1)
   !_____________!__________________________!____________!_____________!______________________!________!
   !             !        description       !  multiple  !    vector   !       vector         ! vector !
   !             !                          ! categories !  reference  !     orientation      ! grids  !
!***   send    ***
   sn_snd_temp   =   'weighted oce and ice' ,    'no'    ,     ''      ,         ''           ,   ''
   sn_snd_alb    =   'weighted ice'         ,    'no'    ,     ''      ,         ''           ,   ''
   sn_snd_thick  =   'none'                 ,    'no'    ,     ''      ,         ''           ,   ''
   sn_snd_crt    =   'none'                 ,    'no'    , 'spherical' , 'eastward-northward' ,  'T'
   sn_snd_co2    =   'coupled'              ,    'no'    ,     ''      ,         ''           ,   ''
   sn_snd_crtw   =   'none'                 ,    'no'    ,     ''      ,         ''           , 'U,V'
   sn_snd_ifrac  =   'none'                 ,    'no'    ,     ''      ,         ''           ,   ''
   sn_snd_wlev   =   'coupled'              ,    'no'    ,     ''      ,         ''           ,   ''
   sn_snd_cond   =   'weighted ice'         ,    'no'    ,     ''      ,         ''           ,   ''
   sn_snd_thick1 =   'ice and snow'         ,    'no'    ,     ''      ,         ''           ,   ''
   sn_snd_mpnd   =   'weighted ice'         ,    'no'    ,     ''      ,         ''           ,   ''
   sn_snd_sstfrz =   'coupled'              ,    'no'    ,     ''      ,         ''           ,   ''
   sn_snd_ttilyr =   'weighted ice'         ,    'no'    ,     ''      ,         ''           ,   ''
!***  receive  ***
   sn_rcv_w10m   =   'none'                 ,    'no'    ,     ''      ,         ''           ,   ''